% SOLVER
%
SOLVER= RANS
KIND_TURB_MODEL= SA
MATH_PROBLEM= DIRECT

% RESTART
%
RESTART_SOL= NO

% COMPRESSIBLE FREE-STREAM
%
MACH_NUMBER= 0.4
AOA= 0.0
FREESTREAM_TEMPERATURE= 288.16
REYNOLDS_NUMBER= 24416381
REYNOLDS_LENGTH= 2.62

% REFERENCE VALUES
%
REF_ORIGIN_MOMENT_X= 1.0
REF_ORIGIN_MOMENT_Y= 0.0
REF_ORIGIN_MOMENT_Z= 0.0
REF_LENGTH= 2.62
REF_AREA= 2.62

% BOUNDARY CONDITIONS
%
MARKER_HEATFLUX= ( wall, 0.0 )
MARKER_FAR= ( far-field )
MARKER_PLOTTING= ( wall )
MARKER_SYM= ( symmetry )
MARKER_MONITORING= ( wall )

% DISCRETIZATION
%
TIME_DOMAIN= YES
TIME_MARCHING= DUAL_TIME_STEPPING-2ND_ORDER
TIME_STEP= 1e-4
NUM_METHOD_GRAD= WEIGHTED_LEAST_SQUARES
CONV_NUM_METHOD_FLOW= JST
JST_SENSOR_COEFF= ( 0.5, 0.005 )
CONV_NUM_METHOD_TURB= SCALAR_UPWIND
MUSCL_TURB= NO

% SOLUTION METHODS
%
TIME_DISCRE_FLOW= EULER_IMPLICIT
TIME_DISCRE_TURB= EULER_IMPLICIT
CFL_NUMBER= 1e12
CFL_ADAPT= NO
LINEAR_SOLVER= FGMRES
LINEAR_SOLVER_ERROR= 0.1
LINEAR_SOLVER_ITER= 10

% INNER CONVERGENCE
%
INNER_ITER= 10
CONV_FIELD= REL_RMS_DENSITY
CONV_RESIDUAL_MINVAL= -3
CONV_STARTITER= 0

% TIME CONVERGENCE
%
ITER= 500
%
% Convergence criteria (CAUCHY, RESIDUAL)
CONV_FIELD= LIFT  %CAUCHY
%
CONV_RESIDUAL_MINVAL= -11.5
%
% Start convergence criteria at iteration number
CONV_STARTITER= 10
%
% Number of elements to apply the criteria
CONV_CAUCHY_ELEMS= 500
%
% Epsilon to control the series convergence
CONV_CAUCHY_EPS= 5e-07

% INPUT/OUTPUT
%
HISTORY_WRT_FREQ_INNER= 0
SCREEN_WRT_FREQ_INNER= 100
%
MESH_FILENAME= su2meshExtrusion.su2
MESH_FORMAT= SU2
SOLUTION_FILENAME= restart_flow.dat
SOLUTION_ADJ_FILENAME= restart_adj.dat
RESTART_FILENAME= restart_flow.dat
RESTART_ADJ_FILENAME= restart_adj.dat
VOLUME_FILENAME= flow
SURFACE_FILENAME= surface_flow
TABULAR_FORMAT= CSV
CONV_FILENAME= history
SCREEN_OUTPUT= ( TIME_ITER, INNER_ITER, RMS_DENSITY, REL_RMS_DENSITY, DRAG, LIFT, CAUCHY_TAVG_DRAG, CAUCHY_TAVG_LIFT )
HISTORY_OUTPUT= ( TIME_ITER, INNER_ITER, REL_RMS_RES, RMS_RES, AERO_COEFF, TAVG_AERO_COEFF, CAUCHY )
OUTPUT_FILES= ( RESTART, PARAVIEW )
OUTPUT_WRT_FREQ= 300
